/*--------------------------------*- C++ -*----------------------------------*\
| =========                 |                                                 |
| \\      /  F ield         | OpenFOAM: The Open Source CFD Toolbox           |
|  \\    /   O peration     | Version:  2412                                  |
|   \\  /    A nd           | Website:  www.openfoam.com                      |
|    \\/     M anipulation  |                                                 |
\*---------------------------------------------------------------------------*/
FoamFile
{
    version     2.0;
    format      ascii;
    arch        "LSB;label=32;scalar=64";
    class       polyBoundaryMesh;
    location    "constant/polyMesh";
    object      boundary;
}
// * * * * * * * * * * * * * * * * * * * * * * * * * * * * * * * * * * * * * //

4
(
    PRISM
    {
        type            wall;
        inGroups        1(wall);
        nFaces          40;
        startFace       6860;
    }
    SIDE1
    {
        type            wall;
        inGroups        1(wall);
        nFaces          3500;
        startFace       6900;
    }
    SIDE2
    {
        type            wall;
        inGroups        1(wall);
        nFaces          3500;
        startFace       10400;
    }
    OVERSET
    {
        type            wall;
        inGroups        1(wall);
        nFaces          240;
        startFace       13900;
    }
)

// ************************************************************************* //
