/*--------------------------------*- C++ -*----------------------------------*\
| =========                 |                                                 |
| \\      /  F ield         | OpenFOAM: The Open Source CFD Toolbox           |
|  \\    /   O peration     | Version:  v1812                                 |
|   \\  /    A nd           | Web:      www.OpenFOAM.com                      |
|    \\/     M anipulation  |                                                 |
\*---------------------------------------------------------------------------*/
FoamFile
{
    version     2.0;
    format      ascii;
    class       dictionary;
    object      controlDict;
}
// * * * * * * * * * * * * * * * * * * * * * * * * * * * * * * * * * * * * * //

//libs (petscFoam);

libs
(
"petscFoam"
"overset" 
"fvMotionSolvers"
);

application     overPimpleDyMFoam;//pimpleFoam;

startFrom       latestTime;//startTime;

startTime       0;

stopAt          endTime;

endTime         30; // 20 Through times

deltaT          0.005;

writeControl    timeStep;

writeInterval   10;

purgeWrite      0;

writeFormat     ascii;

writePrecision  8;

writeCompression on;

timeFormat      general;

timePrecision   8;

runTimeModifiable true;

// ************************************************************************* //
